Mestre em Engenharia Mecânica pela UNIFEI Universidade Federal de Itajubá, na área de Conversão de Energia, em Projeto e Desenvolvimento de Câmaras de Combustão de Turbinas a Gás, considerando a Substituição de Combustível de Projeto. Engenheiro Mecânico pela mesma instituição em julho de 2009. Participou do programa de graduação sanduíche da CAPES-BRAFITEC com a École Nationale d'Arts et Métiers (ENSAM-Bordeaux/França), aprofundando seus estudos em aeronáutica e espacial. Durante o intercâmbio, desenvolveu trabalhos acerca das características da condutividade em compósito de carbono / carbono, a partir das imagens tomográficas reais 3D, com aplicação em tubeiras de foguetes. Participou do Programa de Iniciação Científica PIBIC-CNPq (2006-2007), empregando materiais com memória de forma no Controle Adaptativo de Vibrações em Estruturas Mecânicas. Atualmente, faz doutorado na área de combustão Sem Chama Visível, flameless, investigando o regime em uma fornalha utilizando ANSYS Fluent. Tem dedicado à simulação numérica usando técnicas de CFD pelo ANSYS CFX/Fluent, principalmente em câmaras de combustão. Atua em diversos projetos PD, com destaque para o desenvolvimento de ferramentas para diagnóstico de turbinas a vapor e melhorias na conservação de termelétricas através da metodologia Ciclo de Rotinas. (Texto informado pelo autor)